Test_Network/condensed/network_18/Feeder_1/Loads - Copy.txt
New Load.LOAD1 Phases=1 Bus1=119.2 kV=0.23 kW=1 PF=0.95
New Load.LOAD2 Phases=1 Bus1=203.3 kV=0.23 kW=1 PF=0.95
New Load.LOAD3 Phases=1 Bus1=214.3 kV=0.23 kW=1 PF=0.95
New Load.LOAD4 Phases=1 Bus1=230.1 kV=0.23 kW=1 PF=0.95
New Load.LOAD5 Phases=1 Bus1=270.2 kV=0.23 kW=1 PF=0.95
New Load.LOAD6 Phases=1 Bus1=315.2 kV=0.23 kW=1 PF=0.95
New Load.LOAD7 Phases=1 Bus1=378.2 kV=0.23 kW=1 PF=0.95
New Load.LOAD8 Phases=1 Bus1=401.3 kV=0.23 kW=1 PF=0.95
New Load.LOAD9 Phases=1 Bus1=415.1 kV=0.23 kW=1 PF=0.95
New Load.LOAD10 Phases=1 Bus1=450.3 kV=0.23 kW=1 PF=0.95
New Load.LOAD11 Phases=1 Bus1=457.2 kV=0.23 kW=1 PF=0.95
New Load.LOAD12 Phases=1 Bus1=491.1 kV=0.23 kW=1 PF=0.95
New Load.LOAD13 Phases=1 Bus1=526.1 kV=0.23 kW=1 PF=0.95
New Load.LOAD14 Phases=1 Bus1=591.3 kV=0.23 kW=1 PF=0.95
New Load.LOAD15 Phases=1 Bus1=682.3 kV=0.23 kW=1 PF=0.95
New Load.LOAD16 Phases=1 Bus1=710.2 kV=0.23 kW=1 PF=0.95
New Load.LOAD17 Phases=1 Bus1=799.3 kV=0.23 kW=1 PF=0.95
New Load.LOAD18 Phases=1 Bus1=819.1 kV=0.23 kW=1 PF=0.95
New Load.LOAD19 Phases=1 Bus1=821.2 kV=0.23 kW=1 PF=0.95
New Load.LOAD20 Phases=1 Bus1=884.1 kV=0.23 kW=1 PF=0.95
New Load.LOAD21 Phases=1 Bus1=896.3 kV=0.23 kW=1 PF=0.95
New Load.LOAD22 Phases=1 Bus1=918.3 kV=0.23 kW=1 PF=0.95
New Load.LOAD23 Phases=1 Bus1=954.1 kV=0.23 kW=1 PF=0.95
New Load.LOAD24 Phases=1 Bus1=960.1 kV=0.23 kW=1 PF=0.95
New Load.LOAD25 Phases=1 Bus1=966.2 kV=0.23 kW=1 PF=0.95
New Load.LOAD26 Phases=1 Bus1=982.3 kV=0.23 kW=1 PF=0.95
New Load.LOAD27 Phases=1 Bus1=1000.3 kV=0.23 kW=1 PF=0.95
New Load.LOAD28 Phases=1 Bus1=1058.3 kV=0.23 kW=1 PF=0.95
New Load.LOAD29 Phases=1 Bus1=1089.2 kV=0.23 kW=1 PF=0.95
New Load.LOAD30 Phases=1 Bus1=1097.2 kV=0.23 kW=1 PF=0.95
New Load.LOAD31 Phases=1 Bus1=1099.1 kV=0.23 kW=1 PF=0.95
New Load.LOAD32 Phases=1 Bus1=1105.3 kV=0.23 kW=1 PF=0.95
New Load.LOAD33 Phases=1 Bus1=1133.1 kV=0.23 kW=1 PF=0.95
New Load.LOAD34 Phases=1 Bus1=1154.3 kV=0.23 kW=1 PF=0.95
New Load.LOAD35 Phases=1 Bus1=1174.3 kV=0.23 kW=1 PF=0.95
New Load.LOAD36 Phases=1 Bus1=1187.2 kV=0.23 kW=1 PF=0.95
New Load.LOAD37 Phases=1 Bus1=1229.1 kV=0.23 kW=1 PF=0.95
New Load.LOAD38 Phases=1 Bus1=1257.3 kV=0.23 kW=1 PF=0.95
New Load.LOAD39 Phases=1 Bus1=1267.2 kV=0.23 kW=1 PF=0.95
New Load.LOAD40 Phases=1 Bus1=1300.3 kV=0.23 kW=1 PF=0.95
New Load.LOAD41 Phases=1 Bus1=1307.3 kV=0.23 kW=1 PF=0.95
New Load.LOAD42 Phases=1 Bus1=1308.1 kV=0.23 kW=1 PF=0.95
New Load.LOAD43 Phases=1 Bus1=1311.1 kV=0.23 kW=1 PF=0.95
New Load.LOAD44 Phases=1 Bus1=1314.2 kV=0.23 kW=1 PF=0.95
New Load.LOAD45 Phases=1 Bus1=1315.3 kV=0.23 kW=1 PF=0.95
New Load.LOAD46 Phases=1 Bus1=1320.1 kV=0.23 kW=1 PF=0.95
New Load.LOAD47 Phases=1 Bus1=1326.2 kV=0.23 kW=1 PF=0.95
New Load.LOAD48 Phases=1 Bus1=1327.1 kV=0.23 kW=1 PF=0.95
New Load.LOAD49 Phases=1 Bus1=1329.2 kV=0.23 kW=1 PF=0.95
New Load.LOAD50 Phases=1 Bus1=1346.3 kV=0.23 kW=1 PF=0.95
New Load.LOAD51 Phases=1 Bus1=1357.2 kV=0.23 kW=1 PF=0.95
New Load.LOAD52 Phases=1 Bus1=1391.2 kV=0.23 kW=1 PF=0.95
New Load.LOAD53 Phases=1 Bus1=1394.1 kV=0.23 kW=1 PF=0.95
New Load.LOAD54 Phases=1 Bus1=1401.3 kV=0.23 kW=1 PF=0.95
New Load.LOAD55 Phases=1 Bus1=1407.3 kV=0.23 kW=1 PF=0.95
New Load.LOAD56 Phases=1 Bus1=1408.2 kV=0.23 kW=1 PF=0.95
